
---------- Begin Simulation Statistics ----------
final_tick                                  598046000                       # Number of ticks from beginning of simulation (restored from checkpoints and never reset)
host_inst_rate                                 125656                       # Simulator instruction rate (inst/s)
host_mem_usage                                 672156                       # Number of bytes of host memory used
host_op_rate                                   143425                       # Simulator op (including micro ops) rate (op/s)
host_seconds                                     0.07                       # Real time elapsed on the host
host_tick_rate                             9134452417                       # Simulator tick rate (ticks/s)
sim_freq                                 1000000000000                       # Frequency of simulated ticks
sim_insts                                        8214                       # Number of instructions simulated
sim_ops                                          9388                       # Number of ops (including micro ops) simulated
sim_seconds                                  0.000598                       # Number of seconds simulated
sim_ticks                                   598046000                       # Number of ticks simulated
system.cpu.Branches                              1592                       # Number of branches fetched
system.cpu.committedInsts                        8214                       # Number of instructions committed
system.cpu.committedOps                          9388                       # Number of ops (including micro ops) committed
system.cpu.dtb.accesses                             0                       # DTB accesses
system.cpu.dtb.align_faults                         0                       # Number of TLB faults due to alignment restrictions
system.cpu.dtb.domain_faults                        0                       # Number of TLB faults due to domain restrictions
system.cpu.dtb.flush_entries                        0                       # Number of entries that have been flushed from TLB
system.cpu.dtb.flush_tlb                            0                       # Number of times complete TLB was flushed
system.cpu.dtb.flush_tlb_asid                       0                       # Number of times TLB was flushed by ASID
system.cpu.dtb.flush_tlb_mva                        0                       # Number of times TLB was flushed by MVA
system.cpu.dtb.flush_tlb_mva_asid                   0                       # Number of times TLB was flushed by MVA & ASID
system.cpu.dtb.hits                                 0                       # DTB hits
system.cpu.dtb.inst_accesses                        0                       # ITB inst accesses
system.cpu.dtb.inst_hits                            0                       # ITB inst hits
system.cpu.dtb.inst_misses                          0                       # ITB inst misses
system.cpu.dtb.misses                               0                       # DTB misses
system.cpu.dtb.perms_faults                         0                       # Number of TLB faults due to permissions restrictions
system.cpu.dtb.prefetch_faults                      0                       # Number of TLB faults due to prefetch
system.cpu.dtb.read_accesses                        0                       # DTB read accesses
system.cpu.dtb.read_hits                            0                       # DTB read hits
system.cpu.dtb.read_misses                          0                       # DTB read misses
system.cpu.dtb.stage2_mmu.stage2_tlb.accesses            0                       # DTB accesses
system.cpu.dtb.stage2_mmu.stage2_tlb.align_faults            0                       # Number of TLB faults due to alignment restrictions
system.cpu.dtb.stage2_mmu.stage2_tlb.domain_faults            0                       # Number of TLB faults due to domain restrictions
system.cpu.dtb.stage2_mmu.stage2_tlb.flush_entries            0                       # Number of entries that have been flushed from TLB
system.cpu.dtb.stage2_mmu.stage2_tlb.flush_tlb            0                       # Number of times complete TLB was flushed
system.cpu.dtb.stage2_mmu.stage2_tlb.flush_tlb_asid            0                       # Number of times TLB was flushed by ASID
system.cpu.dtb.stage2_mmu.stage2_tlb.flush_tlb_mva            0                       # Number of times TLB was flushed by MVA
system.cpu.dtb.stage2_mmu.stage2_tlb.flush_tlb_mva_asid            0                       # Number of times TLB was flushed by MVA & ASID
system.cpu.dtb.stage2_mmu.stage2_tlb.hits            0                       # DTB hits
system.cpu.dtb.stage2_mmu.stage2_tlb.inst_accesses            0                       # ITB inst accesses
system.cpu.dtb.stage2_mmu.stage2_tlb.inst_hits            0                       # ITB inst hits
system.cpu.dtb.stage2_mmu.stage2_tlb.inst_misses            0                       # ITB inst misses
system.cpu.dtb.stage2_mmu.stage2_tlb.misses            0                       # DTB misses
system.cpu.dtb.stage2_mmu.stage2_tlb.perms_faults            0                       # Number of TLB faults due to permissions restrictions
system.cpu.dtb.stage2_mmu.stage2_tlb.prefetch_faults            0                       # Number of TLB faults due to prefetch
system.cpu.dtb.stage2_mmu.stage2_tlb.read_accesses            0                       # DTB read accesses
system.cpu.dtb.stage2_mmu.stage2_tlb.read_hits            0                       # DTB read hits
system.cpu.dtb.stage2_mmu.stage2_tlb.read_misses            0                       # DTB read misses
system.cpu.dtb.stage2_mmu.stage2_tlb.walker.walkRequestOrigin_Requested::Data            0                       # Table walker requests started/completed, data/inst
system.cpu.dtb.stage2_mmu.stage2_tlb.walker.walkRequestOrigin_Requested::Inst            0                       # Table walker requests started/completed, data/inst
system.cpu.dtb.stage2_mmu.stage2_tlb.walker.walkRequestOrigin_Requested::total            0                       # Table walker requests started/completed, data/inst
system.cpu.dtb.stage2_mmu.stage2_tlb.walker.walkRequestOrigin_Completed::Data            0                       # Table walker requests started/completed, data/inst
system.cpu.dtb.stage2_mmu.stage2_tlb.walker.walkRequestOrigin_Completed::Inst            0                       # Table walker requests started/completed, data/inst
system.cpu.dtb.stage2_mmu.stage2_tlb.walker.walkRequestOrigin_Completed::total            0                       # Table walker requests started/completed, data/inst
system.cpu.dtb.stage2_mmu.stage2_tlb.walker.walkRequestOrigin::total            0                       # Table walker requests started/completed, data/inst
system.cpu.dtb.stage2_mmu.stage2_tlb.walker.walks            0                       # Table walker walks requested
system.cpu.dtb.stage2_mmu.stage2_tlb.write_accesses            0                       # DTB write accesses
system.cpu.dtb.stage2_mmu.stage2_tlb.write_hits            0                       # DTB write hits
system.cpu.dtb.stage2_mmu.stage2_tlb.write_misses            0                       # DTB write misses
system.cpu.dtb.walker.walkRequestOrigin_Requested::Data            0                       # Table walker requests started/completed, data/inst
system.cpu.dtb.walker.walkRequestOrigin_Requested::Inst            0                       # Table walker requests started/completed, data/inst
system.cpu.dtb.walker.walkRequestOrigin_Requested::total            0                       # Table walker requests started/completed, data/inst
system.cpu.dtb.walker.walkRequestOrigin_Completed::Data            0                       # Table walker requests started/completed, data/inst
system.cpu.dtb.walker.walkRequestOrigin_Completed::Inst            0                       # Table walker requests started/completed, data/inst
system.cpu.dtb.walker.walkRequestOrigin_Completed::total            0                       # Table walker requests started/completed, data/inst
system.cpu.dtb.walker.walkRequestOrigin::total            0                       # Table walker requests started/completed, data/inst
system.cpu.dtb.walker.walks                         0                       # Table walker walks requested
system.cpu.dtb.write_accesses                       0                       # DTB write accesses
system.cpu.dtb.write_hits                           0                       # DTB write hits
system.cpu.dtb.write_misses                         0                       # DTB write misses
system.cpu.idle_fraction                     0.000000                       # Percentage of idle cycles
system.cpu.itb.accesses                             0                       # DTB accesses
system.cpu.itb.align_faults                         0                       # Number of TLB faults due to alignment restrictions
system.cpu.itb.domain_faults                        0                       # Number of TLB faults due to domain restrictions
system.cpu.itb.flush_entries                        0                       # Number of entries that have been flushed from TLB
system.cpu.itb.flush_tlb                            0                       # Number of times complete TLB was flushed
system.cpu.itb.flush_tlb_asid                       0                       # Number of times TLB was flushed by ASID
system.cpu.itb.flush_tlb_mva                        0                       # Number of times TLB was flushed by MVA
system.cpu.itb.flush_tlb_mva_asid                   0                       # Number of times TLB was flushed by MVA & ASID
system.cpu.itb.hits                                 0                       # DTB hits
system.cpu.itb.inst_accesses                        0                       # ITB inst accesses
system.cpu.itb.inst_hits                            0                       # ITB inst hits
system.cpu.itb.inst_misses                          0                       # ITB inst misses
system.cpu.itb.misses                               0                       # DTB misses
system.cpu.itb.perms_faults                         0                       # Number of TLB faults due to permissions restrictions
system.cpu.itb.prefetch_faults                      0                       # Number of TLB faults due to prefetch
system.cpu.itb.read_accesses                        0                       # DTB read accesses
system.cpu.itb.read_hits                            0                       # DTB read hits
system.cpu.itb.read_misses                          0                       # DTB read misses
system.cpu.itb.stage2_mmu.stage2_tlb.accesses            0                       # DTB accesses
system.cpu.itb.stage2_mmu.stage2_tlb.align_faults            0                       # Number of TLB faults due to alignment restrictions
system.cpu.itb.stage2_mmu.stage2_tlb.domain_faults            0                       # Number of TLB faults due to domain restrictions
system.cpu.itb.stage2_mmu.stage2_tlb.flush_entries            0                       # Number of entries that have been flushed from TLB
system.cpu.itb.stage2_mmu.stage2_tlb.flush_tlb            0                       # Number of times complete TLB was flushed
system.cpu.itb.stage2_mmu.stage2_tlb.flush_tlb_asid            0                       # Number of times TLB was flushed by ASID
system.cpu.itb.stage2_mmu.stage2_tlb.flush_tlb_mva            0                       # Number of times TLB was flushed by MVA
system.cpu.itb.stage2_mmu.stage2_tlb.flush_tlb_mva_asid            0                       # Number of times TLB was flushed by MVA & ASID
system.cpu.itb.stage2_mmu.stage2_tlb.hits            0                       # DTB hits
system.cpu.itb.stage2_mmu.stage2_tlb.inst_accesses            0                       # ITB inst accesses
system.cpu.itb.stage2_mmu.stage2_tlb.inst_hits            0                       # ITB inst hits
system.cpu.itb.stage2_mmu.stage2_tlb.inst_misses            0                       # ITB inst misses
system.cpu.itb.stage2_mmu.stage2_tlb.misses            0                       # DTB misses
system.cpu.itb.stage2_mmu.stage2_tlb.perms_faults            0                       # Number of TLB faults due to permissions restrictions
system.cpu.itb.stage2_mmu.stage2_tlb.prefetch_faults            0                       # Number of TLB faults due to prefetch
system.cpu.itb.stage2_mmu.stage2_tlb.read_accesses            0                       # DTB read accesses
system.cpu.itb.stage2_mmu.stage2_tlb.read_hits            0                       # DTB read hits
system.cpu.itb.stage2_mmu.stage2_tlb.read_misses            0                       # DTB read misses
system.cpu.itb.stage2_mmu.stage2_tlb.walker.walkRequestOrigin_Requested::Data            0                       # Table walker requests started/completed, data/inst
system.cpu.itb.stage2_mmu.stage2_tlb.walker.walkRequestOrigin_Requested::Inst            0                       # Table walker requests started/completed, data/inst
system.cpu.itb.stage2_mmu.stage2_tlb.walker.walkRequestOrigin_Requested::total            0                       # Table walker requests started/completed, data/inst
system.cpu.itb.stage2_mmu.stage2_tlb.walker.walkRequestOrigin_Completed::Data            0                       # Table walker requests started/completed, data/inst
system.cpu.itb.stage2_mmu.stage2_tlb.walker.walkRequestOrigin_Completed::Inst            0                       # Table walker requests started/completed, data/inst
system.cpu.itb.stage2_mmu.stage2_tlb.walker.walkRequestOrigin_Completed::total            0                       # Table walker requests started/completed, data/inst
system.cpu.itb.stage2_mmu.stage2_tlb.walker.walkRequestOrigin::total            0                       # Table walker requests started/completed, data/inst
system.cpu.itb.stage2_mmu.stage2_tlb.walker.walks            0                       # Table walker walks requested
system.cpu.itb.stage2_mmu.stage2_tlb.write_accesses            0                       # DTB write accesses
system.cpu.itb.stage2_mmu.stage2_tlb.write_hits            0                       # DTB write hits
system.cpu.itb.stage2_mmu.stage2_tlb.write_misses            0                       # DTB write misses
system.cpu.itb.walker.walkRequestOrigin_Requested::Data            0                       # Table walker requests started/completed, data/inst
system.cpu.itb.walker.walkRequestOrigin_Requested::Inst            0                       # Table walker requests started/completed, data/inst
system.cpu.itb.walker.walkRequestOrigin_Requested::total            0                       # Table walker requests started/completed, data/inst
system.cpu.itb.walker.walkRequestOrigin_Completed::Data            0                       # Table walker requests started/completed, data/inst
system.cpu.itb.walker.walkRequestOrigin_Completed::Inst            0                       # Table walker requests started/completed, data/inst
system.cpu.itb.walker.walkRequestOrigin_Completed::total            0                       # Table walker requests started/completed, data/inst
system.cpu.itb.walker.walkRequestOrigin::total            0                       # Table walker requests started/completed, data/inst
system.cpu.itb.walker.walks                         0                       # Table walker walks requested
system.cpu.itb.write_accesses                       0                       # DTB write accesses
system.cpu.itb.write_hits                           0                       # DTB write hits
system.cpu.itb.write_misses                         0                       # DTB write misses
system.cpu.not_idle_fraction                 1.000000                       # Percentage of non-idle cycles
system.cpu.numCycles                          1196092                       # number of cpu cycles simulated
system.cpu.numWorkItemsCompleted                    0                       # number of work items this cpu completed
system.cpu.numWorkItemsStarted                      0                       # number of work items this cpu started
system.cpu.num_busy_cycles               1196091.998000                       # Number of busy cycles
system.cpu.num_cc_register_reads                31842                       # number of times the CC registers were read
system.cpu.num_cc_register_writes                5451                       # number of times the CC registers were written
system.cpu.num_conditional_control_insts         1134                       # number of instructions that are conditional controls
system.cpu.num_fp_alu_accesses                      0                       # Number of float alu accesses
system.cpu.num_fp_insts                             0                       # number of float instructions
system.cpu.num_fp_register_reads                    0                       # number of times the floating registers were read
system.cpu.num_fp_register_writes                   0                       # number of times the floating registers were written
system.cpu.num_func_calls                         305                       # number of times a function call or return occured
system.cpu.num_idle_cycles                   0.002000                       # Number of idle cycles
system.cpu.num_int_alu_accesses                  8257                       # Number of integer alu accesses
system.cpu.num_int_insts                         8257                       # number of integer instructions
system.cpu.num_int_register_reads               13478                       # number of times the integer registers were read
system.cpu.num_int_register_writes               5568                       # number of times the integer registers were written
system.cpu.num_load_insts                        1298                       # Number of load instructions
system.cpu.num_mem_refs                          2824                       # number of memory refs
system.cpu.num_store_insts                       1526                       # Number of store instructions
system.cpu.num_vec_alu_accesses                     0                       # Number of vector alu accesses
system.cpu.num_vec_insts                            0                       # number of vector instructions
system.cpu.num_vec_register_reads                  40                       # number of times the vector registers were read
system.cpu.num_vec_register_writes                 13                       # number of times the vector registers were written
system.cpu.op_class::No_OpClass                     0      0.00%      0.00% # Class of executed instruction
system.cpu.op_class::IntAlu                      6596     69.51%     69.51% # Class of executed instruction
system.cpu.op_class::IntMult                       48      0.51%     70.02% # Class of executed instruction
system.cpu.op_class::IntDiv                         0      0.00%     70.02% # Class of executed instruction
system.cpu.op_class::FloatAdd                       0      0.00%     70.02% # Class of executed instruction
system.cpu.op_class::FloatCmp                       0      0.00%     70.02% # Class of executed instruction
system.cpu.op_class::FloatCvt                       0      0.00%     70.02% # Class of executed instruction
system.cpu.op_class::FloatMult                      0      0.00%     70.02% # Class of executed instruction
system.cpu.op_class::FloatMultAcc                   0      0.00%     70.02% # Class of executed instruction
system.cpu.op_class::FloatDiv                       0      0.00%     70.02% # Class of executed instruction
system.cpu.op_class::FloatMisc                      0      0.00%     70.02% # Class of executed instruction
system.cpu.op_class::FloatSqrt                      0      0.00%     70.02% # Class of executed instruction
system.cpu.op_class::SimdAdd                        0      0.00%     70.02% # Class of executed instruction
system.cpu.op_class::SimdAddAcc                     0      0.00%     70.02% # Class of executed instruction
system.cpu.op_class::SimdAlu                        0      0.00%     70.02% # Class of executed instruction
system.cpu.op_class::SimdCmp                        0      0.00%     70.02% # Class of executed instruction
system.cpu.op_class::SimdCvt                        0      0.00%     70.02% # Class of executed instruction
system.cpu.op_class::SimdMisc                       0      0.00%     70.02% # Class of executed instruction
system.cpu.op_class::SimdMult                       0      0.00%     70.02% # Class of executed instruction
system.cpu.op_class::SimdMultAcc                    0      0.00%     70.02% # Class of executed instruction
system.cpu.op_class::SimdShift                      0      0.00%     70.02% # Class of executed instruction
system.cpu.op_class::SimdShiftAcc                   0      0.00%     70.02% # Class of executed instruction
system.cpu.op_class::SimdDiv                        0      0.00%     70.02% # Class of executed instruction
system.cpu.op_class::SimdSqrt                       0      0.00%     70.02% # Class of executed instruction
system.cpu.op_class::SimdFloatAdd                   0      0.00%     70.02% # Class of executed instruction
system.cpu.op_class::SimdFloatAlu                   0      0.00%     70.02% # Class of executed instruction
system.cpu.op_class::SimdFloatCmp                   0      0.00%     70.02% # Class of executed instruction
system.cpu.op_class::SimdFloatCvt                   0      0.00%     70.02% # Class of executed instruction
system.cpu.op_class::SimdFloatDiv                   0      0.00%     70.02% # Class of executed instruction
system.cpu.op_class::SimdFloatMisc                 21      0.22%     70.24% # Class of executed instruction
system.cpu.op_class::SimdFloatMult                  0      0.00%     70.24% # Class of executed instruction
system.cpu.op_class::SimdFloatMultAcc               0      0.00%     70.24% # Class of executed instruction
system.cpu.op_class::SimdFloatSqrt                  0      0.00%     70.24% # Class of executed instruction
system.cpu.op_class::SimdReduceAdd                  0      0.00%     70.24% # Class of executed instruction
system.cpu.op_class::SimdReduceAlu                  0      0.00%     70.24% # Class of executed instruction
system.cpu.op_class::SimdReduceCmp                  0      0.00%     70.24% # Class of executed instruction
system.cpu.op_class::SimdFloatReduceAdd             0      0.00%     70.24% # Class of executed instruction
system.cpu.op_class::SimdFloatReduceCmp             0      0.00%     70.24% # Class of executed instruction
system.cpu.op_class::SimdAes                        0      0.00%     70.24% # Class of executed instruction
system.cpu.op_class::SimdAesMix                     0      0.00%     70.24% # Class of executed instruction
system.cpu.op_class::SimdSha1Hash                   0      0.00%     70.24% # Class of executed instruction
system.cpu.op_class::SimdSha1Hash2                  0      0.00%     70.24% # Class of executed instruction
system.cpu.op_class::SimdSha256Hash                 0      0.00%     70.24% # Class of executed instruction
system.cpu.op_class::SimdSha256Hash2                0      0.00%     70.24% # Class of executed instruction
system.cpu.op_class::SimdShaSigma2                  0      0.00%     70.24% # Class of executed instruction
system.cpu.op_class::SimdShaSigma3                  0      0.00%     70.24% # Class of executed instruction
system.cpu.op_class::SimdPredAlu                    0      0.00%     70.24% # Class of executed instruction
system.cpu.op_class::MemRead                     1298     13.68%     83.92% # Class of executed instruction
system.cpu.op_class::MemWrite                    1526     16.08%    100.00% # Class of executed instruction
system.cpu.op_class::FloatMemRead                   0      0.00%    100.00% # Class of executed instruction
system.cpu.op_class::FloatMemWrite                  0      0.00%    100.00% # Class of executed instruction
system.cpu.op_class::IprAccess                      0      0.00%    100.00% # Class of executed instruction
system.cpu.op_class::InstPrefetch                   0      0.00%    100.00% # Class of executed instruction
system.cpu.op_class::total                       9489                       # Class of executed instruction
system.cpu.workload.numSyscalls                    10                       # Number of system calls
system.membus.snoop_filter.hit_multi_requests            0                       # Number of requests hitting in the snoop filter with multiple (>1) holders of the requested data.
system.membus.snoop_filter.hit_multi_snoops            0                       # Number of snoops hitting in the snoop filter with multiple (>1) holders of the requested data.
system.membus.snoop_filter.hit_single_requests            0                       # Number of requests hitting in the snoop filter with a single holder of the requested data.
system.membus.snoop_filter.hit_single_snoops            0                       # Number of snoops hitting in the snoop filter with a single holder of the requested data.
system.membus.snoop_filter.tot_requests             0                       # Total number of requests made to the snoop filter.
system.membus.snoop_filter.tot_snoops               0                       # Total number of snoops made to the snoop filter.
system.membus.pwrStateResidencyTicks::UNDEFINED    598046000                       # Cumulative time (in ticks) in various power states
system.membus.trans_dist::ReadReq               10811                       # Transaction distribution
system.membus.trans_dist::ReadResp              10829                       # Transaction distribution
system.membus.trans_dist::WriteReq               1478                       # Transaction distribution
system.membus.trans_dist::WriteResp              1478                       # Transaction distribution
system.membus.trans_dist::SoftPFReq                30                       # Transaction distribution
system.membus.trans_dist::SoftPFResp               30                       # Transaction distribution
system.membus.trans_dist::LoadLockedReq            18                       # Transaction distribution
system.membus.trans_dist::StoreCondReq             18                       # Transaction distribution
system.membus.trans_dist::StoreCondResp            18                       # Transaction distribution
system.membus.pkt_count_system.cpu.icache_port::system.mem_ctrls.port        19178                       # Packet count per connected master and slave (bytes)
system.membus.pkt_count_system.cpu.dcache_port::system.mem_ctrls.port         5532                       # Packet count per connected master and slave (bytes)
system.membus.pkt_count::total                  24710                       # Packet count per connected master and slave (bytes)
system.membus.pkt_size_system.cpu.icache_port::system.mem_ctrls.port        38356                       # Cumulative packet size per connected master and slave (bytes)
system.membus.pkt_size_system.cpu.dcache_port::system.mem_ctrls.port        12541                       # Cumulative packet size per connected master and slave (bytes)
system.membus.pkt_size::total                   50897                       # Cumulative packet size per connected master and slave (bytes)
system.membus.snoops                                0                       # Total snoops (count)
system.membus.snoopTraffic                          0                       # Total snoop traffic (bytes)
system.membus.snoop_fanout::samples             12355                       # Request fanout histogram
system.membus.snoop_fanout::mean                    0                       # Request fanout histogram
system.membus.snoop_fanout::stdev                   0                       # Request fanout histogram
system.membus.snoop_fanout::underflows              0      0.00%      0.00% # Request fanout histogram
system.membus.snoop_fanout::0                   12355    100.00%    100.00% # Request fanout histogram
system.membus.snoop_fanout::1                       0      0.00%    100.00% # Request fanout histogram
system.membus.snoop_fanout::overflows               0      0.00%    100.00% # Request fanout histogram
system.membus.snoop_fanout::min_value               0                       # Request fanout histogram
system.membus.snoop_fanout::max_value               0                       # Request fanout histogram
system.membus.snoop_fanout::total               12355                       # Request fanout histogram
system.membus.reqLayer0.occupancy            13851000                       # Layer occupancy (ticks)
system.membus.reqLayer0.utilization               2.3                       # Layer utilization (%)
system.membus.respLayer1.occupancy           21790000                       # Layer occupancy (ticks)
system.membus.respLayer1.utilization              3.6                       # Layer utilization (%)
system.membus.respLayer2.occupancy            4438250                       # Layer occupancy (ticks)
system.membus.respLayer2.utilization              0.7                       # Layer utilization (%)
system.voltage_domain.voltage                       1                       # Voltage in Volts
system.clk_domain.clock                          1000                       # Clock period in ticks
system.cpu_voltage_domain.voltage                   1                       # Voltage in Volts
system.mem_ctrls.pwrStateResidencyTicks::UNDEFINED    598046000                       # Cumulative time (in ticks) in various power states
system.mem_ctrls.bytes_read::.cpu.inst          38356                       # Number of bytes read from this memory
system.mem_ctrls.bytes_read::.cpu.data           5974                       # Number of bytes read from this memory
system.mem_ctrls.bytes_read::total              44330                       # Number of bytes read from this memory
system.mem_ctrls.bytes_inst_read::.cpu.inst        38356                       # Number of instructions bytes read from this memory
system.mem_ctrls.bytes_inst_read::total         38356                       # Number of instructions bytes read from this memory
system.mem_ctrls.bytes_written::.cpu.data         6567                       # Number of bytes written to this memory
system.mem_ctrls.bytes_written::total            6567                       # Number of bytes written to this memory
system.mem_ctrls.num_reads::.cpu.inst            9589                       # Number of read requests responded to by this memory
system.mem_ctrls.num_reads::.cpu.data            1270                       # Number of read requests responded to by this memory
system.mem_ctrls.num_reads::total               10859                       # Number of read requests responded to by this memory
system.mem_ctrls.num_writes::.cpu.data           1496                       # Number of write requests responded to by this memory
system.mem_ctrls.num_writes::total               1496                       # Number of write requests responded to by this memory
system.mem_ctrls.bw_read::.cpu.inst          64135535                       # Total read bandwidth from this memory (bytes/s)
system.mem_ctrls.bw_read::.cpu.data           9989198                       # Total read bandwidth from this memory (bytes/s)
system.mem_ctrls.bw_read::total              74124733                       # Total read bandwidth from this memory (bytes/s)
system.mem_ctrls.bw_inst_read::.cpu.inst     64135535                       # Instruction read bandwidth from this memory (bytes/s)
system.mem_ctrls.bw_inst_read::total         64135535                       # Instruction read bandwidth from this memory (bytes/s)
system.mem_ctrls.bw_write::.cpu.data         10980761                       # Write bandwidth from this memory (bytes/s)
system.mem_ctrls.bw_write::total             10980761                       # Write bandwidth from this memory (bytes/s)
system.mem_ctrls.bw_total::.cpu.inst         64135535                       # Total bandwidth to/from this memory (bytes/s)
system.mem_ctrls.bw_total::.cpu.data         20969959                       # Total bandwidth to/from this memory (bytes/s)
system.mem_ctrls.bw_total::total             85105494                       # Total bandwidth to/from this memory (bytes/s)
system.mem_ctrls.avgPriority_.cpu.inst::samples      9589.00                       # Average QoS priority value for accepted requests
system.mem_ctrls.avgPriority_.cpu.data::samples      1318.00                       # Average QoS priority value for accepted requests
system.mem_ctrls.priorityMinLatency      0.000000018750                       # per QoS priority minimum request to response latency (s)
system.mem_ctrls.priorityMaxLatency      0.000706915250                       # per QoS priority maximum request to response latency (s)
system.mem_ctrls.numReadWriteTurnArounds            6                       # Number of turnarounds from READ to WRITE
system.mem_ctrls.numWriteReadTurnArounds            6                       # Number of turnarounds from WRITE to READ
system.mem_ctrls.numStayReadState               23210                       # Number of times bus staying in READ state
system.mem_ctrls.numStayWriteState                 90                       # Number of times bus staying in WRITE state
system.mem_ctrls.readReqs                       10859                       # Number of read requests accepted
system.mem_ctrls.writeReqs                       1496                       # Number of write requests accepted
system.mem_ctrls.readBursts                     10859                       # Number of DRAM read bursts, including those serviced by the write queue
system.mem_ctrls.writeBursts                     1496                       # Number of DRAM write bursts, including those merged in the write queue
system.mem_ctrls.servicedByWrQ                     75                       # Number of DRAM read bursts serviced by the write queue
system.mem_ctrls.mergedWrBursts                  1373                       # Number of DRAM write bursts merged with an existing one
system.mem_ctrls.neitherReadNorWriteReqs            0                       # Number of requests that are neither read nor write
system.mem_ctrls.perBankRdBursts::0               725                       # Per bank write bursts
system.mem_ctrls.perBankRdBursts::1                 2                       # Per bank write bursts
system.mem_ctrls.perBankRdBursts::2               503                       # Per bank write bursts
system.mem_ctrls.perBankRdBursts::3               406                       # Per bank write bursts
system.mem_ctrls.perBankRdBursts::4               279                       # Per bank write bursts
system.mem_ctrls.perBankRdBursts::5               332                       # Per bank write bursts
system.mem_ctrls.perBankRdBursts::6              1089                       # Per bank write bursts
system.mem_ctrls.perBankRdBursts::7              1034                       # Per bank write bursts
system.mem_ctrls.perBankRdBursts::8              3143                       # Per bank write bursts
system.mem_ctrls.perBankRdBursts::9              1706                       # Per bank write bursts
system.mem_ctrls.perBankRdBursts::10              107                       # Per bank write bursts
system.mem_ctrls.perBankRdBursts::11             1224                       # Per bank write bursts
system.mem_ctrls.perBankRdBursts::12              152                       # Per bank write bursts
system.mem_ctrls.perBankRdBursts::13               58                       # Per bank write bursts
system.mem_ctrls.perBankRdBursts::14               24                       # Per bank write bursts
system.mem_ctrls.perBankRdBursts::15                0                       # Per bank write bursts
system.mem_ctrls.perBankWrBursts::0                 0                       # Per bank write bursts
system.mem_ctrls.perBankWrBursts::1                 0                       # Per bank write bursts
system.mem_ctrls.perBankWrBursts::2                 0                       # Per bank write bursts
system.mem_ctrls.perBankWrBursts::3                 0                       # Per bank write bursts
system.mem_ctrls.perBankWrBursts::4                 0                       # Per bank write bursts
system.mem_ctrls.perBankWrBursts::5                 0                       # Per bank write bursts
system.mem_ctrls.perBankWrBursts::6                 0                       # Per bank write bursts
system.mem_ctrls.perBankWrBursts::7                 0                       # Per bank write bursts
system.mem_ctrls.perBankWrBursts::8                39                       # Per bank write bursts
system.mem_ctrls.perBankWrBursts::9                44                       # Per bank write bursts
system.mem_ctrls.perBankWrBursts::10               13                       # Per bank write bursts
system.mem_ctrls.perBankWrBursts::11                0                       # Per bank write bursts
system.mem_ctrls.perBankWrBursts::12                0                       # Per bank write bursts
system.mem_ctrls.perBankWrBursts::13                0                       # Per bank write bursts
system.mem_ctrls.perBankWrBursts::14                0                       # Per bank write bursts
system.mem_ctrls.perBankWrBursts::15                0                       # Per bank write bursts
system.mem_ctrls.avgRdQLen                       1.00                       # Average read queue length when enqueuing
system.mem_ctrls.avgWrQLen                      23.77                       # Average write queue length when enqueuing
system.mem_ctrls.totQLat                     37270750                       # Total ticks spent queuing
system.mem_ctrls.totBusLat                   53920000                       # Total ticks spent in databus transfers
system.mem_ctrls.totMemAccLat               239470750                       # Total ticks spent from burst creation until serviced by the DRAM
system.mem_ctrls.avgQLat                      3456.12                       # Average queueing delay per DRAM burst
system.mem_ctrls.avgBusLat                    5000.00                       # Average bus latency per DRAM burst
system.mem_ctrls.avgMemAccLat                22206.12                       # Average memory access latency per DRAM burst
system.mem_ctrls.numRdRetry                         0                       # Number of times read queue was full causing retry
system.mem_ctrls.numWrRetry                         0                       # Number of times write queue was full causing retry
system.mem_ctrls.readRowHits                     9722                       # Number of row buffer hits during reads
system.mem_ctrls.writeRowHits                      93                       # Number of row buffer hits during writes
system.mem_ctrls.readRowHitRate                 90.15                       # Row buffer hit rate for reads
system.mem_ctrls.writeRowHitRate                75.61                       # Row buffer hit rate for writes
system.mem_ctrls.readPktSize::0                   108                       # Read request sizes (log2)
system.mem_ctrls.readPktSize::1                    29                       # Read request sizes (log2)
system.mem_ctrls.readPktSize::2                 10403                       # Read request sizes (log2)
system.mem_ctrls.readPktSize::3                   319                       # Read request sizes (log2)
system.mem_ctrls.readPktSize::4                     0                       # Read request sizes (log2)
system.mem_ctrls.readPktSize::5                     0                       # Read request sizes (log2)
system.mem_ctrls.readPktSize::6                     0                       # Read request sizes (log2)
system.mem_ctrls.writePktSize::0                   25                       # Write request sizes (log2)
system.mem_ctrls.writePktSize::1                    9                       # Write request sizes (log2)
system.mem_ctrls.writePktSize::2                 1293                       # Write request sizes (log2)
system.mem_ctrls.writePktSize::3                  169                       # Write request sizes (log2)
system.mem_ctrls.writePktSize::4                    0                       # Write request sizes (log2)
system.mem_ctrls.writePktSize::5                    0                       # Write request sizes (log2)
system.mem_ctrls.writePktSize::6                    0                       # Write request sizes (log2)
system.mem_ctrls.rdQLenPdf::0                   10776                       # What read queue length does an incoming req see
system.mem_ctrls.rdQLenPdf::1                       8                       # What read queue length does an incoming req see
system.mem_ctrls.rdQLenPdf::2                       0                       # What read queue length does an incoming req see
system.mem_ctrls.rdQLenPdf::3                       0                       # What read queue length does an incoming req see
system.mem_ctrls.rdQLenPdf::4                       0                       # What read queue length does an incoming req see
system.mem_ctrls.rdQLenPdf::5                       0                       # What read queue length does an incoming req see
system.mem_ctrls.rdQLenPdf::6                       0                       # What read queue length does an incoming req see
system.mem_ctrls.rdQLenPdf::7                       0                       # What read queue length does an incoming req see
system.mem_ctrls.rdQLenPdf::8                       0                       # What read queue length does an incoming req see
system.mem_ctrls.rdQLenPdf::9                       0                       # What read queue length does an incoming req see
system.mem_ctrls.rdQLenPdf::10                      0                       # What read queue length does an incoming req see
system.mem_ctrls.rdQLenPdf::11                      0                       # What read queue length does an incoming req see
system.mem_ctrls.rdQLenPdf::12                      0                       # What read queue length does an incoming req see
system.mem_ctrls.rdQLenPdf::13                      0                       # What read queue length does an incoming req see
system.mem_ctrls.rdQLenPdf::14                      0                       # What read queue length does an incoming req see
system.mem_ctrls.rdQLenPdf::15                      0                       # What read queue length does an incoming req see
system.mem_ctrls.rdQLenPdf::16                      0                       # What read queue length does an incoming req see
system.mem_ctrls.rdQLenPdf::17                      0                       # What read queue length does an incoming req see
system.mem_ctrls.rdQLenPdf::18                      0                       # What read queue length does an incoming req see
system.mem_ctrls.rdQLenPdf::19                      0                       # What read queue length does an incoming req see
system.mem_ctrls.rdQLenPdf::20                      0                       # What read queue length does an incoming req see
system.mem_ctrls.rdQLenPdf::21                      0                       # What read queue length does an incoming req see
system.mem_ctrls.rdQLenPdf::22                      0                       # What read queue length does an incoming req see
system.mem_ctrls.rdQLenPdf::23                      0                       # What read queue length does an incoming req see
system.mem_ctrls.rdQLenPdf::24                      0                       # What read queue length does an incoming req see
system.mem_ctrls.rdQLenPdf::25                      0                       # What read queue length does an incoming req see
system.mem_ctrls.rdQLenPdf::26                      0                       # What read queue length does an incoming req see
system.mem_ctrls.rdQLenPdf::27                      0                       # What read queue length does an incoming req see
system.mem_ctrls.rdQLenPdf::28                      0                       # What read queue length does an incoming req see
system.mem_ctrls.rdQLenPdf::29                      0                       # What read queue length does an incoming req see
system.mem_ctrls.rdQLenPdf::30                      0                       # What read queue length does an incoming req see
system.mem_ctrls.rdQLenPdf::31                      0                       # What read queue length does an incoming req see
system.mem_ctrls.wrQLenPdf::0                       1                       # What write queue length does an incoming req see
system.mem_ctrls.wrQLenPdf::1                       1                       # What write queue length does an incoming req see
system.mem_ctrls.wrQLenPdf::2                       1                       # What write queue length does an incoming req see
system.mem_ctrls.wrQLenPdf::3                       1                       # What write queue length does an incoming req see
system.mem_ctrls.wrQLenPdf::4                       1                       # What write queue length does an incoming req see
system.mem_ctrls.wrQLenPdf::5                       1                       # What write queue length does an incoming req see
system.mem_ctrls.wrQLenPdf::6                       1                       # What write queue length does an incoming req see
system.mem_ctrls.wrQLenPdf::7                       1                       # What write queue length does an incoming req see
system.mem_ctrls.wrQLenPdf::8                       1                       # What write queue length does an incoming req see
system.mem_ctrls.wrQLenPdf::9                       1                       # What write queue length does an incoming req see
system.mem_ctrls.wrQLenPdf::10                      1                       # What write queue length does an incoming req see
system.mem_ctrls.wrQLenPdf::11                      1                       # What write queue length does an incoming req see
system.mem_ctrls.wrQLenPdf::12                      1                       # What write queue length does an incoming req see
system.mem_ctrls.wrQLenPdf::13                      1                       # What write queue length does an incoming req see
system.mem_ctrls.wrQLenPdf::14                      1                       # What write queue length does an incoming req see
system.mem_ctrls.wrQLenPdf::15                      1                       # What write queue length does an incoming req see
system.mem_ctrls.wrQLenPdf::16                      1                       # What write queue length does an incoming req see
system.mem_ctrls.wrQLenPdf::17                      7                       # What write queue length does an incoming req see
system.mem_ctrls.wrQLenPdf::18                      7                       # What write queue length does an incoming req see
system.mem_ctrls.wrQLenPdf::19                      7                       # What write queue length does an incoming req see
system.mem_ctrls.wrQLenPdf::20                      7                       # What write queue length does an incoming req see
system.mem_ctrls.wrQLenPdf::21                      7                       # What write queue length does an incoming req see
system.mem_ctrls.wrQLenPdf::22                      7                       # What write queue length does an incoming req see
system.mem_ctrls.wrQLenPdf::23                      7                       # What write queue length does an incoming req see
system.mem_ctrls.wrQLenPdf::24                      7                       # What write queue length does an incoming req see
system.mem_ctrls.wrQLenPdf::25                      7                       # What write queue length does an incoming req see
system.mem_ctrls.wrQLenPdf::26                      7                       # What write queue length does an incoming req see
system.mem_ctrls.wrQLenPdf::27                      6                       # What write queue length does an incoming req see
system.mem_ctrls.wrQLenPdf::28                      6                       # What write queue length does an incoming req see
system.mem_ctrls.wrQLenPdf::29                      6                       # What write queue length does an incoming req see
system.mem_ctrls.wrQLenPdf::30                      6                       # What write queue length does an incoming req see
system.mem_ctrls.wrQLenPdf::31                      6                       # What write queue length does an incoming req see
system.mem_ctrls.wrQLenPdf::32                      6                       # What write queue length does an incoming req see
system.mem_ctrls.wrQLenPdf::33                      0                       # What write queue length does an incoming req see
system.mem_ctrls.wrQLenPdf::34                      0                       # What write queue length does an incoming req see
system.mem_ctrls.wrQLenPdf::35                      0                       # What write queue length does an incoming req see
system.mem_ctrls.wrQLenPdf::36                      0                       # What write queue length does an incoming req see
system.mem_ctrls.wrQLenPdf::37                      0                       # What write queue length does an incoming req see
system.mem_ctrls.wrQLenPdf::38                      0                       # What write queue length does an incoming req see
system.mem_ctrls.wrQLenPdf::39                      0                       # What write queue length does an incoming req see
system.mem_ctrls.wrQLenPdf::40                      0                       # What write queue length does an incoming req see
system.mem_ctrls.wrQLenPdf::41                      0                       # What write queue length does an incoming req see
system.mem_ctrls.wrQLenPdf::42                      0                       # What write queue length does an incoming req see
system.mem_ctrls.wrQLenPdf::43                      0                       # What write queue length does an incoming req see
system.mem_ctrls.wrQLenPdf::44                      0                       # What write queue length does an incoming req see
system.mem_ctrls.wrQLenPdf::45                      0                       # What write queue length does an incoming req see
system.mem_ctrls.wrQLenPdf::46                      0                       # What write queue length does an incoming req see
system.mem_ctrls.wrQLenPdf::47                      0                       # What write queue length does an incoming req see
system.mem_ctrls.wrQLenPdf::48                      0                       # What write queue length does an incoming req see
system.mem_ctrls.wrQLenPdf::49                      0                       # What write queue length does an incoming req see
system.mem_ctrls.wrQLenPdf::50                      0                       # What write queue length does an incoming req see
system.mem_ctrls.wrQLenPdf::51                      0                       # What write queue length does an incoming req see
system.mem_ctrls.wrQLenPdf::52                      0                       # What write queue length does an incoming req see
system.mem_ctrls.wrQLenPdf::53                      0                       # What write queue length does an incoming req see
system.mem_ctrls.wrQLenPdf::54                      0                       # What write queue length does an incoming req see
system.mem_ctrls.wrQLenPdf::55                      0                       # What write queue length does an incoming req see
system.mem_ctrls.wrQLenPdf::56                      0                       # What write queue length does an incoming req see
system.mem_ctrls.wrQLenPdf::57                      0                       # What write queue length does an incoming req see
system.mem_ctrls.wrQLenPdf::58                      0                       # What write queue length does an incoming req see
system.mem_ctrls.wrQLenPdf::59                      0                       # What write queue length does an incoming req see
system.mem_ctrls.wrQLenPdf::60                      0                       # What write queue length does an incoming req see
system.mem_ctrls.wrQLenPdf::61                      0                       # What write queue length does an incoming req see
system.mem_ctrls.wrQLenPdf::62                      0                       # What write queue length does an incoming req see
system.mem_ctrls.wrQLenPdf::63                      0                       # What write queue length does an incoming req see
system.mem_ctrls.bytesPerActivate::samples         1057                       # Bytes accessed per row activation
system.mem_ctrls.bytesPerActivate::mean    655.803217                       # Bytes accessed per row activation
system.mem_ctrls.bytesPerActivate::gmean   456.692669                       # Bytes accessed per row activation
system.mem_ctrls.bytesPerActivate::stdev   396.065755                       # Bytes accessed per row activation
system.mem_ctrls.bytesPerActivate::0-127          155     14.66%     14.66% # Bytes accessed per row activation
system.mem_ctrls.bytesPerActivate::128-255          103      9.74%     24.41% # Bytes accessed per row activation
system.mem_ctrls.bytesPerActivate::256-383           86      8.14%     32.54% # Bytes accessed per row activation
system.mem_ctrls.bytesPerActivate::384-511           51      4.82%     37.37% # Bytes accessed per row activation
system.mem_ctrls.bytesPerActivate::512-639           53      5.01%     42.38% # Bytes accessed per row activation
system.mem_ctrls.bytesPerActivate::640-767           43      4.07%     46.45% # Bytes accessed per row activation
system.mem_ctrls.bytesPerActivate::768-895           47      4.45%     50.90% # Bytes accessed per row activation
system.mem_ctrls.bytesPerActivate::896-1023           35      3.31%     54.21% # Bytes accessed per row activation
system.mem_ctrls.bytesPerActivate::1024-1151          484     45.79%    100.00% # Bytes accessed per row activation
system.mem_ctrls.bytesPerActivate::total         1057                       # Bytes accessed per row activation
system.mem_ctrls.rdPerTurnAround::samples            6                       # Reads before turning the bus around for writes
system.mem_ctrls.rdPerTurnAround::mean           1698                       # Reads before turning the bus around for writes
system.mem_ctrls.rdPerTurnAround::gmean   1497.304841                       # Reads before turning the bus around for writes
system.mem_ctrls.rdPerTurnAround::stdev    813.817178                       # Reads before turning the bus around for writes
system.mem_ctrls.rdPerTurnAround::512-639            1     16.67%     16.67% # Reads before turning the bus around for writes
system.mem_ctrls.rdPerTurnAround::1280-1407            1     16.67%     33.33% # Reads before turning the bus around for writes
system.mem_ctrls.rdPerTurnAround::1408-1535            1     16.67%     50.00% # Reads before turning the bus around for writes
system.mem_ctrls.rdPerTurnAround::1664-1791            1     16.67%     66.67% # Reads before turning the bus around for writes
system.mem_ctrls.rdPerTurnAround::2560-2687            2     33.33%    100.00% # Reads before turning the bus around for writes
system.mem_ctrls.rdPerTurnAround::total             6                       # Reads before turning the bus around for writes
system.mem_ctrls.wrPerTurnAround::samples            6                       # Writes before turning the bus around for reads
system.mem_ctrls.wrPerTurnAround::mean             16                       # Writes before turning the bus around for reads
system.mem_ctrls.wrPerTurnAround::gmean     16.000000                       # Writes before turning the bus around for reads
system.mem_ctrls.wrPerTurnAround::16                6    100.00%    100.00% # Writes before turning the bus around for reads
system.mem_ctrls.wrPerTurnAround::total             6                       # Writes before turning the bus around for reads
system.mem_ctrls.bytesReadDRAM                 690176                       # Total number of bytes read from DRAM
system.mem_ctrls.bytesReadWrQ                    4800                       # Total number of bytes read from write queue
system.mem_ctrls.bytesWritten                    6144                       # Total number of bytes written to DRAM
system.mem_ctrls.bytesReadSys                   44330                       # Total read bytes from the system interface side
system.mem_ctrls.bytesWrittenSys                 6567                       # Total written bytes from the system interface side
system.mem_ctrls.avgRdBW                      1154.05                       # Average DRAM read bandwidth in MiByte/s
system.mem_ctrls.avgWrBW                        10.27                       # Average achieved write bandwidth in MiByte/s
system.mem_ctrls.avgRdBWSys                     74.12                       # Average system read bandwidth in MiByte/s
system.mem_ctrls.avgWrBWSys                     10.98                       # Average system write bandwidth in MiByte/s
system.mem_ctrls.peakBW                      12800.00                       # Theoretical peak bandwidth in MiByte/s
system.mem_ctrls.busUtil                         9.10                       # Data bus utilization in percentage
system.mem_ctrls.busUtilRead                     9.02                       # Data bus utilization in percentage for reads
system.mem_ctrls.busUtilWrite                    0.08                       # Data bus utilization in percentage for writes
system.mem_ctrls.totGap                     597920000                       # Total gap between requests
system.mem_ctrls.avgGap                      48394.98                       # Average gap between requests
system.mem_ctrls.masterReadBytes::.cpu.inst        38356                       # Per-master bytes read from memory
system.mem_ctrls.masterReadBytes::.cpu.data         5677                       # Per-master bytes read from memory
system.mem_ctrls.masterWriteBytes::.cpu.data          394                       # Per-master bytes write to memory
system.mem_ctrls.masterReadRate::.cpu.inst 64135534.724753618240                       # Per-master bytes read from memory rate (Bytes/sec)
system.mem_ctrls.masterReadRate::.cpu.data 9492580.838263276964                       # Per-master bytes read from memory rate (Bytes/sec)
system.mem_ctrls.masterWriteRate::.cpu.data 658812.198392765829                       # Per-master bytes write to memory rate (Bytes/sec)
system.mem_ctrls.masterReadAccesses::.cpu.inst         9589                       # Per-master read serviced memory accesses
system.mem_ctrls.masterReadAccesses::.cpu.data         1270                       # Per-master read serviced memory accesses
system.mem_ctrls.masterWriteAccesses::.cpu.data         1496                       # Per-master write serviced memory accesses
system.mem_ctrls.masterReadTotalLat::.cpu.inst    210022000                       # Per-master read total memory access latency
system.mem_ctrls.masterReadTotalLat::.cpu.data     29448750                       # Per-master read total memory access latency
system.mem_ctrls.masterWriteTotalLat::.cpu.data  11401000000                       # Per-master write total memory access latency
system.mem_ctrls.masterReadAvgLat::.cpu.inst     21902.39                       # Per-master read average memory access latency
system.mem_ctrls.masterReadAvgLat::.cpu.data     23187.99                       # Per-master read average memory access latency
system.mem_ctrls.masterWriteAvgLat::.cpu.data   7620989.30                       # Per-master write average memory access latency
system.mem_ctrls.pageHitRate                    89.99                       # Row buffer hit rate, read and write combined
system.mem_ctrls.rank1.actEnergy              5076540                       # Energy for activate commands per rank (pJ)
system.mem_ctrls.rank1.preEnergy              2683065                       # Energy for precharge commands per rank (pJ)
system.mem_ctrls.rank1.readEnergy            45795960                       # Energy for read commands per rank (pJ)
system.mem_ctrls.rank1.writeEnergy             501120                       # Energy for write commands per rank (pJ)
system.mem_ctrls.rank1.refreshEnergy     46712640.000000                       # Energy for refresh commands per rank (pJ)
system.mem_ctrls.rank1.actBackEnergy        250089780                       # Energy for active background per rank (pJ)
system.mem_ctrls.rank1.preBackEnergy         19047840                       # Energy for precharge background per rank (pJ)
system.mem_ctrls.rank1.actPowerDownEnergy            0                       # Energy for active power-down per rank (pJ)
system.mem_ctrls.rank1.prePowerDownEnergy            0                       # Energy for precharge power-down per rank (pJ)
system.mem_ctrls.rank1.selfRefreshEnergy            0                       # Energy for self refresh per rank (pJ)
system.mem_ctrls.rank1.totalEnergy          369906945                       # Total energy per rank (pJ)
system.mem_ctrls.rank1.averagePower        618.525908                       # Core power per rank (mW)
system.mem_ctrls.rank1.totalIdleTime                0                       # Total Idle time Per DRAM Rank
system.mem_ctrls.rank1.memoryStateTime::IDLE     47043750                       # Time in different power states
system.mem_ctrls.rank1.memoryStateTime::REF     19760000                       # Time in different power states
system.mem_ctrls.rank1.memoryStateTime::SREF            0                       # Time in different power states
system.mem_ctrls.rank1.memoryStateTime::PRE_PDN            0                       # Time in different power states
system.mem_ctrls.rank1.memoryStateTime::ACT    531242250                       # Time in different power states
system.mem_ctrls.rank1.memoryStateTime::ACT_PDN            0                       # Time in different power states
system.mem_ctrls.rank0.actEnergy              2527560                       # Energy for activate commands per rank (pJ)
system.mem_ctrls.rank0.preEnergy              1328250                       # Energy for precharge commands per rank (pJ)
system.mem_ctrls.rank0.readEnergy            31201800                       # Energy for read commands per rank (pJ)
system.mem_ctrls.rank0.writeEnergy                  0                       # Energy for write commands per rank (pJ)
system.mem_ctrls.rank0.refreshEnergy     46712640.000000                       # Energy for refresh commands per rank (pJ)
system.mem_ctrls.rank0.actBackEnergy        191968590                       # Energy for active background per rank (pJ)
system.mem_ctrls.rank0.preBackEnergy         67992000                       # Energy for precharge background per rank (pJ)
system.mem_ctrls.rank0.actPowerDownEnergy            0                       # Energy for active power-down per rank (pJ)
system.mem_ctrls.rank0.prePowerDownEnergy            0                       # Energy for precharge power-down per rank (pJ)
system.mem_ctrls.rank0.selfRefreshEnergy            0                       # Energy for self refresh per rank (pJ)
system.mem_ctrls.rank0.totalEnergy          341730840                       # Total energy per rank (pJ)
system.mem_ctrls.rank0.averagePower        571.412299                       # Core power per rank (mW)
system.mem_ctrls.rank0.totalIdleTime                0                       # Total Idle time Per DRAM Rank
system.mem_ctrls.rank0.memoryStateTime::IDLE    173179250                       # Time in different power states
system.mem_ctrls.rank0.memoryStateTime::REF     19760000                       # Time in different power states
system.mem_ctrls.rank0.memoryStateTime::SREF            0                       # Time in different power states
system.mem_ctrls.rank0.memoryStateTime::PRE_PDN            0                       # Time in different power states
system.mem_ctrls.rank0.memoryStateTime::ACT    405106750                       # Time in different power states
system.mem_ctrls.rank0.memoryStateTime::ACT_PDN            0                       # Time in different power states
system.cpu_clk_domain.clock                       500                       # Clock period in ticks
system.cpu.numPwrStateTransitions                   1                       # Number of power state transitions
system.cpu.pwrStateResidencyTicks::ON       598046000                       # Cumulative time (in ticks) in various power states
system.cpu.dtb.walker.pwrStateResidencyTicks::UNDEFINED    598046000                       # Cumulative time (in ticks) in various power states
system.cpu.dtb.stage2_mmu.stage2_tlb.walker.pwrStateResidencyTicks::UNDEFINED    598046000                       # Cumulative time (in ticks) in various power states
system.cpu.itb.walker.pwrStateResidencyTicks::UNDEFINED    598046000                       # Cumulative time (in ticks) in various power states
system.cpu.itb.stage2_mmu.stage2_tlb.walker.pwrStateResidencyTicks::UNDEFINED    598046000                       # Cumulative time (in ticks) in various power states

---------- End Simulation Statistics   ----------
